Version 4
SHEET 1 1256 680
WIRE 896 32 704 32
WIRE 208 48 16 48
WIRE 896 48 896 32
WIRE 224 96 208 96
WIRE 704 128 704 32
WIRE 16 144 16 48
WIRE 208 160 208 144
WIRE 224 160 224 96
WIRE 224 160 208 160
WIRE 896 160 896 144
WIRE 992 160 896 160
WIRE 1120 160 1072 160
WIRE 1200 160 1120 160
WIRE 208 176 208 160
WIRE 304 176 208 176
WIRE 432 176 384 176
WIRE 512 176 432 176
WIRE 1200 176 1200 160
WIRE 512 192 512 176
WIRE 896 192 896 160
WIRE 1120 192 1120 160
WIRE 208 208 208 176
WIRE 432 208 432 176
WIRE 704 304 704 208
WIRE 896 304 896 256
WIRE 896 304 704 304
WIRE 1120 304 1120 256
WIRE 1120 304 896 304
WIRE 1200 304 1200 256
WIRE 1200 304 1120 304
WIRE 16 320 16 224
WIRE 208 320 208 272
WIRE 208 320 16 320
WIRE 432 320 432 272
WIRE 432 320 208 320
WIRE 512 320 512 272
WIRE 512 320 432 320
WIRE 896 336 896 304
WIRE 208 352 208 320
FLAG 208 352 0
FLAG 896 336 0
SYMBOL voltage 16 128 R0
WINDOW 3 -329 114 Left 2
WINDOW 123 0 0 Left 0
WINDOW 39 0 0 Left 0
SYMATTR InstName V1
SYMATTR Value PULSE(0 1 0 1n 1n 1m 2m)
SYMBOL npn4 144 48 R0
SYMATTR InstName Q3
SYMATTR Value 2N2222
SYMBOL ind 288 192 R270
WINDOW 0 32 56 VTop 2
WINDOW 3 5 56 VBottom 2
SYMATTR InstName L1
SYMATTR Value 1
SYMBOL cap 416 208 R0
SYMATTR InstName C1
SYMATTR Value 1
SYMBOL res 496 176 R0
SYMATTR InstName R1
SYMATTR Value 1
SYMBOL diode 224 272 R180
WINDOW 0 24 64 Left 2
WINDOW 3 24 0 Left 2
SYMATTR InstName D1
SYMATTR Value DI_1N4004
SYMBOL voltage 704 112 R0
WINDOW 123 0 0 Left 0
WINDOW 39 0 0 Left 0
SYMATTR InstName V2
SYMATTR Value PULSE(0 1 0 1n 1n 1m 2m)
SYMBOL ind 976 176 R270
WINDOW 0 32 56 VTop 2
WINDOW 3 5 56 VBottom 2
SYMATTR InstName L2
SYMATTR Value 1
SYMBOL cap 1104 192 R0
SYMATTR InstName C2
SYMATTR Value 1
SYMBOL res 1184 160 R0
SYMATTR InstName R2
SYMATTR Value 1
SYMBOL diode 912 256 R180
WINDOW 0 24 64 Left 2
WINDOW 3 24 0 Left 2
SYMATTR InstName D2
SYMATTR Value DI_1N4004
SYMBOL nmos 848 48 R0
SYMATTR InstName M1
SYMATTR Value Si7336ADP
TEXT -16 336 Left 2 ;.tran 50k
TEXT 672 320 Left 2 !.tran 10m
